powerfulcases/cases/matpower/case300/case300.raw
0, 100, 33, 0, 0, 60  / 28-Jan-2026 21:51:53 - MATPOWER 8.1


     1, 'BUS 1       ',       115, 1,    1,    1, 1,      1.0284,        5.95, 1.06, 0.94, 1.06, 0.94
     2, 'BUS 2       ',       115, 1,    1,    1, 1,      1.0354,        7.74, 1.06, 0.94, 1.06, 0.94
     3, 'BUS 3       ',       230, 1,    1,    1, 1,      0.9971,        6.64, 1.06, 0.94, 1.06, 0.94
     4, 'BUS 4       ',       345, 1,    1,    1, 1,      1.0308,        4.71, 1.06, 0.94, 1.06, 0.94
     5, 'BUS 5       ',       115, 1,    1,    1, 1,      1.0191,        4.68, 1.06, 0.94, 1.06, 0.94
     6, 'BUS 6       ',       115, 1,    1,    1, 1,      1.0312,        6.99, 1.06, 0.94, 1.06, 0.94
     7, 'BUS 7       ',       230, 1,    1,    1, 1,      0.9934,        6.19, 1.06, 0.94, 1.06, 0.94
     8, 'BUS 8       ',       115, 2,    1,    1, 1,      1.0153,         2.4, 1.06, 0.94, 1.06, 0.94
     9, 'BUS 9       ',       115, 1,    1,    1, 1,      1.0034,        2.85, 1.06, 0.94, 1.06, 0.94
    10, 'BUS 10      ',       230, 2,    1,    1, 1,      1.0205,        1.35, 1.06, 0.94, 1.06, 0.94
    11, 'BUS 11      ',       115, 1,    1,    1, 1,      1.0057,        2.46, 1.06, 0.94, 1.06, 0.94
    12, 'BUS 12      ',       230, 1,    1,    1, 1,      0.9974,        5.21, 1.06, 0.94, 1.06, 0.94
    13, 'BUS 13      ',       115, 1,    1,    1, 1,      0.9977,       -0.55, 1.06, 0.94, 1.06, 0.94
    14, 'BUS 14      ',       115, 1,    1,    1, 1,      0.9991,       -4.81, 1.06, 0.94, 1.06, 0.94
    15, 'BUS 15      ',       115, 1,    1,    1, 1,      1.0343,       -8.59, 1.06, 0.94, 1.06, 0.94
    16, 'BUS 16      ',       345, 1,    1,    1, 1,      1.0315,       -2.65, 1.06, 0.94, 1.06, 0.94
    17, 'BUS 17      ',       115, 1,    1,    1, 1,      1.0649,       -13.1, 1.06, 0.94, 1.06, 0.94
    19, 'BUS 19      ',       230, 1,    1,    1, 1,       0.982,        1.08, 1.06, 0.94, 1.06, 0.94
    20, 'BUS 20      ',       115, 2,    1,    1, 1,       1.001,       -2.46, 1.06, 0.94, 1.06, 0.94
    21, 'BUS 21      ',       230, 1,    1,    1, 1,      0.9752,        1.62, 1.06, 0.94, 1.06, 0.94
    22, 'BUS 22      ',       115, 1,    1,    1, 1,      0.9963,       -1.97, 1.06, 0.94, 1.06, 0.94
    23, 'BUS 23      ',       115, 1,    1,    1, 1,      1.0501,        3.94, 1.06, 0.94, 1.06, 0.94
    24, 'BUS 24      ',       230, 1,    1,    1, 1,      1.0057,        6.02, 1.06, 0.94, 1.06, 0.94
    25, 'BUS 25      ',       115, 1,    1,    1, 1,      1.0234,        1.44, 1.06, 0.94, 1.06, 0.94
    26, 'BUS 26      ',       115, 1,    1,    1, 1,      0.9986,       -1.73, 1.06, 0.94, 1.06, 0.94
    27, 'BUS 27      ',       115, 1,    1,    1, 1,       0.975,        -4.9, 1.06, 0.94, 1.06, 0.94
    33, 'BUS 33      ',       115, 1,    1,    1, 1,      1.0244,      -12.02, 1.06, 0.94, 1.06, 0.94
    34, 'BUS 34      ',       345, 1,    1,    1, 1,      1.0414,       -7.94, 1.06, 0.94, 1.06, 0.94
    35, 'BUS 35      ',       115, 1,    1,    1, 1,      0.9757,      -25.72, 1.06, 0.94, 1.06, 0.94
    36, 'BUS 36      ',       230, 1,    1,    1, 1,      1.0011,      -22.59, 1.06, 0.94, 1.06, 0.94
    37, 'BUS 37      ',       115, 1,    1,    1, 1,      1.0201,      -11.23, 1.06, 0.94, 1.06, 0.94
    38, 'BUS 38      ',       115, 1,    1,    1, 1,      1.0202,      -12.56, 1.06, 0.94, 1.06, 0.94
    39, 'BUS 39      ',       345, 1,    1,    1, 1,      1.0535,       -5.81, 1.06, 0.94, 1.06, 0.94
    40, 'BUS 40      ',       115, 1,    1,    1, 1,      1.0216,      -12.78, 1.06, 0.94, 1.06, 0.94
    41, 'BUS 41      ',       115, 1,    1,    1, 1,      1.0292,      -10.45, 1.06, 0.94, 1.06, 0.94
    42, 'BUS 42      ',       345, 1,    1,    1, 1,      1.0448,       -7.44, 1.06, 0.94, 1.06, 0.94
    43, 'BUS 43      ',       115, 1,    1,    1, 1,      1.0006,      -16.79, 1.06, 0.94, 1.06, 0.94
    44, 'BUS 44      ',       115, 1,    1,    1, 1,      1.0086,      -17.47, 1.06, 0.94, 1.06, 0.94
    45, 'BUS 45      ',       230, 1,    1,    1, 1,      1.0215,      -14.74, 1.06, 0.94, 1.06, 0.94
    46, 'BUS 46      ',       345, 1,    1,    1, 1,      1.0344,      -11.75, 1.06, 0.94, 1.06, 0.94
    47, 'BUS 47      ',       115, 1,    1,    1, 1,      0.9777,      -23.17, 1.06, 0.94, 1.06, 0.94
    48, 'BUS 48      ',       115, 1,    1,    1, 1,      1.0019,      -16.09, 1.06, 0.94, 1.06, 0.94
    49, 'BUS 49      ',       115, 1,    1,    1, 1,      1.0475,       -2.95, 1.06, 0.94, 1.06, 0.94
    51, 'BUS 51      ',       115, 1,    1,    1, 1,      1.0253,       -8.15, 1.06, 0.94, 1.06, 0.94
    52, 'BUS 52      ',       115, 1,    1,    1, 1,      0.9979,      -11.86, 1.06, 0.94, 1.06, 0.94
    53, 'BUS 53      ',       115, 1,    1,    1, 1,      0.9959,       -17.6, 1.06, 0.94, 1.06, 0.94
    54, 'BUS 54      ',       115, 1,    1,    1, 1,       1.005,      -16.25, 1.06, 0.94, 1.06, 0.94
    55, 'BUS 55      ',       115, 1,    1,    1, 1,       1.015,      -12.21, 1.06, 0.94, 1.06, 0.94
    57, 'BUS 57      ',       115, 1,    1,    1, 1,      1.0335,          -8, 1.06, 0.94, 1.06, 0.94
    58, 'BUS 58      ',       115, 1,    1,    1, 1,      0.9918,       -5.99, 1.06, 0.94, 1.06, 0.94
    59, 'BUS 59      ',       115, 1,    1,    1, 1,      0.9789,       -5.29, 1.06, 0.94, 1.06, 0.94
    60, 'BUS 60      ',       230, 1,    1,    1, 1,      1.0246,       -9.56, 1.06, 0.94, 1.06, 0.94
    61, 'BUS 61      ',       115, 1,    1,    1, 1,      0.9906,       -3.47, 1.06, 0.94, 1.06, 0.94
    62, 'BUS 62      ',       230, 1,    1,    1, 1,       1.016,        -1.1, 1.06, 0.94, 1.06, 0.94
    63, 'BUS 63      ',       115, 2,    1,    1, 1,      0.9583,      -17.62, 1.06, 0.94, 1.06, 0.94
    64, 'BUS 64      ',       230, 1,    1,    1, 1,       0.948,      -12.97, 1.06, 0.94, 1.06, 0.94
    69, 'BUS 69      ',       115, 1,    1,    1, 1,       0.963,      -25.66, 1.06, 0.94, 1.06, 0.94
    70, 'BUS 70      ',       115, 1,    1,    1, 1,      0.9513,      -35.16, 1.06, 0.94, 1.06, 0.94
    71, 'BUS 71      ',       115, 1,    1,    1, 1,      0.9793,      -29.88, 1.06, 0.94, 1.06, 0.94
    72, 'BUS 72      ',       115, 1,    1,    1, 1,      0.9696,      -27.48, 1.06, 0.94, 1.06, 0.94
    73, 'BUS 73      ',       115, 1,    1,    1, 1,      0.9775,      -25.77, 1.06, 0.94, 1.06, 0.94
    74, 'BUS 74      ',       230, 1,    1,    1, 1,      0.9964,         -22, 1.06, 0.94, 1.06, 0.94
    76, 'BUS 76      ',       115, 2,    1,    1, 1,      0.9632,      -26.54, 1.06, 0.94, 1.06, 0.94
    77, 'BUS 77      ',       115, 1,    1,    1, 1,      0.9837,      -24.94, 1.06, 0.94, 1.06, 0.94
    78, 'BUS 78      ',       115, 1,    1,    1, 1,        0.99,      -24.05, 1.06, 0.94, 1.06, 0.94
    79, 'BUS 79      ',       115, 1,    1,    1, 1,       0.982,      -24.97, 1.06, 0.94, 1.06, 0.94
    80, 'BUS 80      ',       115, 1,    1,    1, 1,      0.9872,      -24.97, 1.06, 0.94, 1.06, 0.94
    81, 'BUS 81      ',       345, 1,    1,    1, 1,       1.034,      -18.89, 1.06, 0.94, 1.06, 0.94
    84, 'BUS 84      ',       115, 2,    1,    1, 1,       1.025,      -17.16, 1.06, 0.94, 1.06, 0.94
    85, 'BUS 85      ',       230, 1,    1,    1, 1,      0.9872,      -17.68, 1.06, 0.94, 1.06, 0.94
    86, 'BUS 86      ',       230, 1,    1,    1, 1,      0.9909,      -14.19, 1.06, 0.94, 1.06, 0.94
    87, 'BUS 87      ',       230, 1,    1,    1, 1,      0.9921,       -7.77, 1.06, 0.94, 1.06, 0.94
    88, 'BUS 88      ',       230, 1,    1,    1, 1,      1.0151,      -20.96, 1.06, 0.94, 1.06, 0.94
    89, 'BUS 89      ',       115, 1,    1,    1, 1,      1.0317,      -11.13, 1.06, 0.94, 1.06, 0.94
    90, 'BUS 90      ',       115, 1,    1,    1, 1,      1.0272,      -11.23, 1.06, 0.94, 1.06, 0.94
    91, 'BUS 91      ',       115, 2,    1,    1, 1,       1.052,        -9.4, 1.06, 0.94, 1.06, 0.94
    92, 'BUS 92      ',       115, 2,    1,    1, 1,       1.052,        -6.2, 1.06, 0.94, 1.06, 0.94
    94, 'BUS 94      ',       115, 1,    1,    1, 1,       0.993,       -9.42, 1.06, 0.94, 1.06, 0.94
    97, 'BUS 97      ',       115, 1,    1,    1, 1,      1.0183,      -13.24, 1.06, 0.94, 1.06, 0.94
    98, 'BUS 98      ',       115, 2,    1,    1, 1,           1,       -14.6, 1.06, 0.94, 1.06, 0.94
    99, 'BUS 99      ',       115, 1,    1,    1, 1,      0.9894,      -20.27, 1.06, 0.94, 1.06, 0.94
   100, 'BUS 100     ',       115, 1,    1,    1, 1,       1.006,      -14.45, 1.06, 0.94, 1.06, 0.94
   102, 'BUS 102     ',       115, 1,    1,    1, 1,      1.0008,      -15.23, 1.06, 0.94, 1.06, 0.94
   103, 'BUS 103     ',       115, 1,    1,    1, 1,      1.0288,      -12.06, 1.06, 0.94, 1.06, 0.94
   104, 'BUS 104     ',       115, 1,    1,    1, 1,      0.9958,      -17.33, 1.06, 0.94, 1.06, 0.94
   105, 'BUS 105     ',       115, 1,    1,    1, 1,      1.0223,      -12.94, 1.06, 0.94, 1.06, 0.94
   107, 'BUS 107     ',       115, 1,    1,    1, 1,      1.0095,      -16.03, 1.06, 0.94, 1.06, 0.94
   108, 'BUS 108     ',       115, 2,    1,    1, 1,        0.99,      -20.26, 1.06, 0.94, 1.06, 0.94
   109, 'BUS 109     ',       115, 1,    1,    1, 1,      0.9749,      -26.06, 1.06, 0.94, 1.06, 0.94
   110, 'BUS 110     ',       115, 1,    1,    1, 1,       0.973,      -24.72, 1.06, 0.94, 1.06, 0.94
   112, 'BUS 112     ',       115, 1,    1,    1, 1,      0.9725,      -28.69, 1.06, 0.94, 1.06, 0.94
   113, 'BUS 113     ',       115, 1,    1,    1, 1,        0.97,      -25.38, 1.06, 0.94, 1.06, 0.94
   114, 'BUS 114     ',       115, 1,    1,    1, 1,      0.9747,      -28.59, 1.06, 0.94, 1.06, 0.94
   115, 'BUS 115     ',       115, 1,    1,    2, 1,      0.9603,      -13.57, 1.06, 0.94, 1.06, 0.94
   116, 'BUS 116     ',       115, 1,    1,    2, 1,      1.0249,      -12.69, 1.06, 0.94, 1.06, 0.94
   117, 'BUS 117     ',       115, 1,    1,    2, 1,      0.9348,       -4.72, 1.06, 0.94, 1.06, 0.94
   118, 'BUS 118     ',       115, 1,    1,    2, 1,      0.9298,       -4.12, 1.06, 0.94, 1.06, 0.94
   119, 'BUS 119     ',       115, 2,    1,    2, 1,      1.0435,        5.17, 1.06, 0.94, 1.06, 0.94
   120, 'BUS 120     ',       115, 1,    1,    2, 1,      0.9584,       -8.77, 1.06, 0.94, 1.06, 0.94
   121, 'BUS 121     ',       115, 1,    1,    2, 1,      0.9871,      -12.64, 1.06, 0.94, 1.06, 0.94
   122, 'BUS 122     ',       115, 1,    1,    2, 1,      0.9728,      -14.36, 1.06, 0.94, 1.06, 0.94
   123, 'BUS 123     ',       115, 1,    1,    2, 1,      1.0006,      -17.64, 1.06, 0.94, 1.06, 0.94
   124, 'BUS 124     ',       115, 2,    1,    2, 1,      1.0233,      -13.49, 1.06, 0.94, 1.06, 0.94
   125, 'BUS 125     ',       115, 2,    1,    2, 1,      1.0103,      -18.43, 1.06, 0.94, 1.06, 0.94
   126, 'BUS 126     ',       115, 1,    1,    2, 1,      0.9978,      -12.86, 1.06, 0.94, 1.06, 0.94
   127, 'BUS 127     ',       230, 1,    1,    2, 1,      1.0001,      -10.52, 1.06, 0.94, 1.06, 0.94
   128, 'BUS 128     ',       230, 1,    1,    2, 1,      1.0024,       -4.78, 1.06, 0.94, 1.06, 0.94
   129, 'BUS 129     ',       230, 1,    1,    2, 1,      1.0028,        -4.4, 1.06, 0.94, 1.06, 0.94
   130, 'BUS 130     ',       230, 1,    1,    2, 1,      1.0191,        5.56, 1.06, 0.94, 1.06, 0.94
   131, 'BUS 131     ',       230, 1,    1,    2, 1,      0.9861,        6.06, 1.06, 0.94, 1.06, 0.94
   132, 'BUS 132     ',       230, 1,    1,    2, 1,      1.0045,        3.04, 1.06, 0.94, 1.06, 0.94
   133, 'BUS 133     ',       230, 1,    1,    2, 1,       1.002,       -5.46, 1.06, 0.94, 1.06, 0.94
   134, 'BUS 134     ',       230, 1,    1,    2, 1,       1.022,       -8.04, 1.06, 0.94, 1.06, 0.94
   135, 'BUS 135     ',       230, 1,    1,    2, 1,      1.0193,       -6.76, 1.06, 0.94, 1.06, 0.94
   136, 'BUS 136     ',       230, 1,    1,    2, 1,      1.0476,        1.54, 1.06, 0.94, 1.06, 0.94
   137, 'BUS 137     ',       230, 1,    1,    2, 1,      1.0471,       -1.45, 1.06, 0.94, 1.06, 0.94
   138, 'BUS 138     ',       230, 2,    1,    2, 1,       1.055,       -6.35, 1.06, 0.94, 1.06, 0.94
   139, 'BUS 139     ',       115, 1,    1,    2, 1,      1.0117,       -3.57, 1.06, 0.94, 1.06, 0.94
   140, 'BUS 140     ',       230, 1,    1,    2, 1,       1.043,       -3.44, 1.06, 0.94, 1.06, 0.94
   141, 'BUS 141     ',       230, 2,    1,    2, 1,       1.051,        0.05, 1.06, 0.94, 1.06, 0.94
   142, 'BUS 142     ',       230, 1,    1,    2, 1,      1.0155,       -2.77, 1.06, 0.94, 1.06, 0.94
   143, 'BUS 143     ',       230, 2,    1,    2, 1,      1.0435,        4.03, 1.06, 0.94, 1.06, 0.94
   144, 'BUS 144     ',       230, 1,    1,    2, 1,       1.016,        -0.7, 1.06, 0.94, 1.06, 0.94
   145, 'BUS 145     ',       230, 1,    1,    2, 1,      1.0081,       -0.16, 1.06, 0.94, 1.06, 0.94
   146, 'BUS 146     ',       230, 2,    1,    2, 1,      1.0528,        4.32, 1.06, 0.94, 1.06, 0.94
   147, 'BUS 147     ',       230, 2,    1,    2, 1,      1.0528,        8.36, 1.06, 0.94, 1.06, 0.94
   148, 'BUS 148     ',       230, 1,    1,    2, 1,      1.0577,        0.28, 1.06, 0.94, 1.06, 0.94
   149, 'BUS 149     ',       230, 2,    1,    2, 1,      1.0735,        5.23, 1.06, 0.94, 1.06, 0.94
   150, 'BUS 150     ',       230, 1,    1,    2, 1,      0.9869,        6.34, 1.06, 0.94, 1.06, 0.94
   151, 'BUS 151     ',       230, 1,    1,    2, 1,      1.0048,        4.13, 1.06, 0.94, 1.06, 0.94
   152, 'BUS 152     ',       230, 2,    1,    2, 1,      1.0535,        9.24, 1.06, 0.94, 1.06, 0.94
   153, 'BUS 153     ',       230, 2,    1,    2, 1,      1.0435,       10.46, 1.06, 0.94, 1.06, 0.94
   154, 'BUS 154     ',       115, 1,    1,    2, 1,      0.9663,        -1.8, 1.06, 0.94, 1.06, 0.94
   155, 'BUS 155     ',       230, 1,    1,    2, 1,      1.0177,        6.75, 1.06, 0.94, 1.06, 0.94
   156, 'BUS 156     ',       115, 2,    1,    2, 1,       0.963,        5.15, 1.06, 0.94, 1.06, 0.94
   157, 'BUS 157     ',       230, 1,    1,    2, 1,      0.9845,      -11.93, 1.06, 0.94, 1.06, 0.94
   158, 'BUS 158     ',       230, 1,    1,    2, 1,      0.9987,       -11.4, 1.06, 0.94, 1.06, 0.94
   159, 'BUS 159     ',       230, 1,    1,    2, 1,      0.9867,       -9.82, 1.06, 0.94, 1.06, 0.94
   160, 'BUS 160     ',       230, 1,    1,    2, 1,      0.9998,      -12.55, 1.06, 0.94, 1.06, 0.94
   161, 'BUS 161     ',       230, 1,    1,    2, 1,       1.036,        8.85, 1.06, 0.94, 1.06, 0.94
   162, 'BUS 162     ',       230, 1,    1,    2, 1,      0.9918,        18.5, 1.06, 0.94, 1.06, 0.94
   163, 'BUS 163     ',       230, 1,    1,    2, 1,       1.041,        2.91, 1.06, 0.94, 1.06, 0.94
   164, 'BUS 164     ',       230, 1,    1,    2, 1,      0.9839,        9.66, 1.06, 0.94, 1.06, 0.94
   165, 'BUS 165     ',       230, 1,    1,    2, 1,      1.0002,       26.31, 1.06, 0.94, 1.06, 0.94
   166, 'BUS 166     ',       230, 1,    1,    2, 1,      0.9973,       30.22, 1.06, 0.94, 1.06, 0.94
   167, 'BUS 167     ',       230, 1,    1,    2, 1,      0.9715,       -6.91, 1.06, 0.94, 1.06, 0.94
   168, 'BUS 168     ',       230, 1,    1,    2, 1,      1.0024,        -4.8, 1.06, 0.94, 1.06, 0.94
   169, 'BUS 169     ',       230, 1,    1,    2, 1,      0.9879,       -6.68, 1.06, 0.94, 1.06, 0.94
   170, 'BUS 170     ',       115, 2,    1,    2, 1,       0.929,        0.09, 1.06, 0.94, 1.06, 0.94
   171, 'BUS 171     ',       115, 2,    1,    2, 1,      0.9829,       -9.94, 1.06, 0.94, 1.06, 0.94
   172, 'BUS 172     ',       115, 1,    1,    2, 1,      1.0244,       -6.22, 1.06, 0.94, 1.06, 0.94
   173, 'BUS 173     ',       115, 1,    1,    2, 1,      0.9837,      -12.75, 1.06, 0.94, 1.06, 0.94
   174, 'BUS 174     ',       115, 1,    1,    2, 1,      1.0622,       -2.69, 1.06, 0.94, 1.06, 0.94
   175, 'BUS 175     ',       115, 1,    1,    2, 1,       0.973,       -7.21, 1.06, 0.94, 1.06, 0.94
   176, 'BUS 176     ',       115, 2,    1,    2, 1,      1.0522,        4.67, 1.06, 0.94, 1.06, 0.94
   177, 'BUS 177     ',       115, 2,    1,    2, 1,      1.0077,        0.62, 1.06, 0.94, 1.06, 0.94
   178, 'BUS 178     ',       115, 1,    1,    2, 1,      0.9397,       -6.56, 1.06, 0.94, 1.06, 0.94
   179, 'BUS 179     ',       115, 1,    1,    2, 1,      0.9699,       -9.37, 1.06, 0.94, 1.06, 0.94
   180, 'BUS 180     ',       115, 1,    1,    2, 1,      0.9793,       -3.09, 1.06, 0.94, 1.06, 0.94
   181, 'BUS 181     ',       230, 1,    1,    2, 1,      1.0518,       -1.33, 1.06, 0.94, 1.06, 0.94
   182, 'BUS 182     ',       230, 1,    1,    2, 1,      1.0447,       -4.19, 1.06, 0.94, 1.06, 0.94
   183, 'BUS 183     ',       115, 1,    1,    2, 1,      0.9717,        7.12, 1.06, 0.94, 1.06, 0.94
   184, 'BUS 184     ',       230, 1,    1,    2, 1,      1.0386,       -6.85, 1.06, 0.94, 1.06, 0.94
   185, 'BUS 185     ',       230, 2,    1,    2, 1,      1.0522,       -4.33, 1.06, 0.94, 1.06, 0.94
   186, 'BUS 186     ',       230, 2,    1,    2, 1,       1.065,        2.17, 1.06, 0.94, 1.06, 0.94
   187, 'BUS 187     ',       230, 2,    1,    2, 1,       1.065,         1.4, 1.06, 0.94, 1.06, 0.94
   188, 'BUS 188     ',       230, 1,    1,    2, 1,      1.0533,       -0.72, 1.06, 0.94, 1.06, 0.94
   189, 'BUS 189     ',        66, 1,    1,    3, 1,      0.9975,      -25.84, 1.06, 0.94, 1.06, 0.94
   190, 'BUS 190     ',       345, 2,    1,    3, 1,      1.0551,      -20.62, 1.06, 0.94, 1.06, 0.94
   191, 'BUS 191     ',       230, 2,    1,    3, 1,      1.0435,       12.25, 1.06, 0.94, 1.06, 0.94
   192, 'BUS 192     ',       230, 1,    1,    3, 1,      0.9374,      -11.18, 1.06, 0.94, 1.06, 0.94
   193, 'BUS 193     ',        66, 1,    1,    3, 1,      0.9897,      -26.09, 1.06, 0.94, 1.06, 0.94
   194, 'BUS 194     ',       345, 1,    1,    3, 1,      1.0489,      -19.21, 1.06, 0.94, 1.06, 0.94
   195, 'BUS 195     ',       345, 1,    1,    3, 1,      1.0357,      -20.79, 1.06, 0.94, 1.06, 0.94
   196, 'BUS 196     ',       115, 1,    1,    3, 1,      0.9695,      -25.32, 1.06, 0.94, 1.06, 0.94
   197, 'BUS 197     ',       115, 1,    1,    3, 1,      0.9907,      -23.72, 1.06, 0.94, 1.06, 0.94
   198, 'BUS 198     ',       115, 2,    1,    3, 1,       1.015,      -20.58, 1.06, 0.94, 1.06, 0.94
   199, 'BUS 199     ',       115, 1,    1,    3, 1,      0.9528,      -26.05, 1.06, 0.94, 1.06, 0.94
   200, 'BUS 200     ',       115, 1,    1,    3, 1,       0.955,      -25.93, 1.06, 0.94, 1.06, 0.94
   201, 'BUS 201     ',        66, 1,    1,    1, 1,      0.9692,      -27.49, 1.06, 0.94, 1.06, 0.94
   202, 'BUS 202     ',        66, 1,    1,    3, 1,      0.9908,      -25.33, 1.06, 0.94, 1.06, 0.94
   203, 'BUS 203     ',       115, 1,    1,    3, 1,      1.0033,      -22.35, 1.06, 0.94, 1.06, 0.94
   204, 'BUS 204     ',        66, 1,    1,    3, 1,      0.9718,       -25.7, 1.06, 0.94, 1.06, 0.94
   205, 'BUS 205     ',        66, 1,    1,    3, 1,      0.9838,      -26.07, 1.06, 0.94, 1.06, 0.94
   206, 'BUS 206     ',        66, 1,    1,    3, 1,      0.9992,      -27.41, 1.06, 0.94, 1.06, 0.94
   207, 'BUS 207     ',        66, 1,    1,    1, 1,      1.0137,      -27.44, 1.06, 0.94, 1.06, 0.94
   208, 'BUS 208     ',        66, 1,    1,    3, 1,      0.9929,      -26.28, 1.06, 0.94, 1.06, 0.94
   209, 'BUS 209     ',        66, 1,    1,    3, 1,      0.9999,      -25.66, 1.06, 0.94, 1.06, 0.94
   210, 'BUS 210     ',       115, 1,    1,    3, 1,      0.9788,      -24.22, 1.06, 0.94, 1.06, 0.94
   211, 'BUS 211     ',       115, 1,    1,    3, 1,      1.0017,      -23.31, 1.06, 0.94, 1.06, 0.94
   212, 'BUS 212     ',       138, 1,    1,    3, 1,      1.0132,      -22.51, 1.06, 0.94, 1.06, 0.94
   213, 'BUS 213     ',      16.5, 2,    1,    3, 1,        1.01,      -11.67, 1.06, 0.94, 1.06, 0.94
   214, 'BUS 214     ',       138, 1,    1,    3, 1,      0.9919,      -17.53, 1.06, 0.94, 1.06, 0.94
   215, 'BUS 215     ',       138, 1,    1,    3, 1,      0.9866,      -20.23, 1.06, 0.94, 1.06, 0.94
   216, 'BUS 216     ',       138, 1,    1,    3, 1,      0.9751,      -22.53, 1.06, 0.94, 1.06, 0.94
   217, 'BUS 217     ',       138, 1,    1,    3, 1,      1.0215,       -22.2, 1.06, 0.94, 1.06, 0.94
   218, 'BUS 218     ',       138, 1,    1,    3, 1,      1.0075,      -22.63, 1.06, 0.94, 1.06, 0.94
   219, 'BUS 219     ',       345, 1,    1,    3, 1,      1.0554,      -21.15, 1.06, 0.94, 1.06, 0.94
   220, 'BUS 220     ',       138, 2,    1,    3, 1,       1.008,      -21.73, 1.06, 0.94, 1.06, 0.94
   221, 'BUS 221     ',       138, 2,    1,    3, 1,           1,      -22.49, 1.06, 0.94, 1.06, 0.94
...
0 / END OF BUS DATA, BEGIN LOAD DATA
     1,  1, 1,    1,    1,        90,        49, 0, 0, 0, 0, 1, 1, 0
     2,  1, 1,    1,    1,        56,        15, 0, 0, 0, 0, 1, 1, 0
     3,  1, 1,    1,    1,        20,         0, 0, 0, 0, 0, 1, 1, 0
     5,  1, 1,    1,    1,       353,       130, 0, 0, 0, 0, 1, 1, 0
     6,  1, 1,    1,    1,       120,        41, 0, 0, 0, 0, 1, 1, 0
     8,  1, 1,    1,    1,        63,        14, 0, 0, 0, 0, 1, 1, 0
     9,  1, 1,    1,    1,        96,        43, 0, 0, 0, 0, 1, 1, 0
    10,  1, 1,    1,    1,       153,        33, 0, 0, 0, 0, 1, 1, 0
    11,  1, 1,    1,    1,        83,        21, 0, 0, 0, 0, 1, 1, 0
    13,  1, 1,    1,    1,        58,        10, 0, 0, 0, 0, 1, 1, 0
    14,  1, 1,    1,    1,       160,        60, 0, 0, 0, 0, 1, 1, 0
    15,  1, 1,    1,    1,     126.7,        23, 0, 0, 0, 0, 1, 1, 0
    17,  1, 1,    1,    1,       561,       220, 0, 0, 0, 0, 1, 1, 0
    20,  1, 1,    1,    1,       605,       120, 0, 0, 0, 0, 1, 1, 0
    21,  1, 1,    1,    1,        77,         1, 0, 0, 0, 0, 1, 1, 0
    22,  1, 1,    1,    1,        81,        23, 0, 0, 0, 0, 1, 1, 0
    23,  1, 1,    1,    1,        21,         7, 0, 0, 0, 0, 1, 1, 0
    25,  1, 1,    1,    1,        45,        12, 0, 0, 0, 0, 1, 1, 0
    26,  1, 1,    1,    1,        28,         9, 0, 0, 0, 0, 1, 1, 0
    27,  1, 1,    1,    1,        69,        13, 0, 0, 0, 0, 1, 1, 0
    33,  1, 1,    1,    1,        55,         6, 0, 0, 0, 0, 1, 1, 0
    37,  1, 1,    1,    1,        85,        32, 0, 0, 0, 0, 1, 1, 0
    38,  1, 1,    1,    1,       155,        18, 0, 0, 0, 0, 1, 1, 0
    40,  1, 1,    1,    1,        46,       -21, 0, 0, 0, 0, 1, 1, 0
    41,  1, 1,    1,    1,        86,         0, 0, 0, 0, 0, 1, 1, 0
    43,  1, 1,    1,    1,        39,         9, 0, 0, 0, 0, 1, 1, 0
    44,  1, 1,    1,    1,       195,        29, 0, 0, 0, 0, 1, 1, 0
    47,  1, 1,    1,    1,        58,      11.8, 0, 0, 0, 0, 1, 1, 0
    48,  1, 1,    1,    1,        41,        19, 0, 0, 0, 0, 1, 1, 0
    49,  1, 1,    1,    1,        92,        26, 0, 0, 0, 0, 1, 1, 0
    51,  1, 1,    1,    1,        -5,         5, 0, 0, 0, 0, 1, 1, 0
    52,  1, 1,    1,    1,        61,        28, 0, 0, 0, 0, 1, 1, 0
    53,  1, 1,    1,    1,        69,         3, 0, 0, 0, 0, 1, 1, 0
    54,  1, 1,    1,    1,        10,         1, 0, 0, 0, 0, 1, 1, 0
    55,  1, 1,    1,    1,        22,        10, 0, 0, 0, 0, 1, 1, 0
    57,  1, 1,    1,    1,        98,        20, 0, 0, 0, 0, 1, 1, 0
    58,  1, 1,    1,    1,        14,         1, 0, 0, 0, 0, 1, 1, 0
    59,  1, 1,    1,    1,       218,       106, 0, 0, 0, 0, 1, 1, 0
    61,  1, 1,    1,    1,       227,       110, 0, 0, 0, 0, 1, 1, 0
    63,  1, 1,    1,    1,        70,        30, 0, 0, 0, 0, 1, 1, 0
    70,  1, 1,    1,    1,        56,        20, 0, 0, 0, 0, 1, 1, 0
    71,  1, 1,    1,    1,       116,        38, 0, 0, 0, 0, 1, 1, 0
    72,  1, 1,    1,    1,        57,        19, 0, 0, 0, 0, 1, 1, 0
    73,  1, 1,    1,    1,       224,        71, 0, 0, 0, 0, 1, 1, 0
    76,  1, 1,    1,    1,       208,       107, 0, 0, 0, 0, 1, 1, 0
    77,  1, 1,    1,    1,        74,        28, 0, 0, 0, 0, 1, 1, 0
    79,  1, 1,    1,    1,        48,        14, 0, 0, 0, 0, 1, 1, 0
    80,  1, 1,    1,    1,        28,         7, 0, 0, 0, 0, 1, 1, 0
    84,  1, 1,    1,    1,        37,        13, 0, 0, 0, 0, 1, 1, 0
    89,  1, 1,    1,    1,      44.2,         0, 0, 0, 0, 0, 1, 1, 0
    90,  1, 1,    1,    1,        66,         0, 0, 0, 0, 0, 1, 1, 0
    91,  1, 1,    1,    1,      17.4,         0, 0, 0, 0, 0, 1, 1, 0
    92,  1, 1,    1,    1,      15.8,         0, 0, 0, 0, 0, 1, 1, 0
    94,  1, 1,    1,    1,      60.3,         0, 0, 0, 0, 0, 1, 1, 0
    97,  1, 1,    1,    1,      39.9,         0, 0, 0, 0, 0, 1, 1, 0
    98,  1, 1,    1,    1,      66.7,         0, 0, 0, 0, 0, 1, 1, 0
    99,  1, 1,    1,    1,      83.5,         0, 0, 0, 0, 0, 1, 1, 0
   102,  1, 1,    1,    1,      77.8,         0, 0, 0, 0, 0, 1, 1, 0
   103,  1, 1,    1,    1,        32,         0, 0, 0, 0, 0, 1, 1, 0
   104,  1, 1,    1,    1,       8.6,         0, 0, 0, 0, 0, 1, 1, 0
   105,  1, 1,    1,    1,      49.6,         0, 0, 0, 0, 0, 1, 1, 0
   107,  1, 1,    1,    1,       4.6,         0, 0, 0, 0, 0, 1, 1, 0
   108,  1, 1,    1,    1,     112.1,         0, 0, 0, 0, 0, 1, 1, 0
   109,  1, 1,    1,    1,      30.7,         0, 0, 0, 0, 0, 1, 1, 0
   110,  1, 1,    1,    1,        63,         0, 0, 0, 0, 0, 1, 1, 0
   112,  1, 1,    1,    1,      19.6,         0, 0, 0, 0, 0, 1, 1, 0
   113,  1, 1,    1,    1,      26.2,         0, 0, 0, 0, 0, 1, 1, 0
   114,  1, 1,    1,    1,      18.2,         0, 0, 0, 0, 0, 1, 1, 0
   118,  1, 1,    1,    2,      14.1,       650, 0, 0, 0, 0, 1, 1, 0
   120,  1, 1,    1,    2,       777,       215, 0, 0, 0, 0, 1, 1, 0
   121,  1, 1,    1,    2,       535,        55, 0, 0, 0, 0, 1, 1, 0
   122,  1, 1,    1,    2,     229.1,      11.8, 0, 0, 0, 0, 1, 1, 0
   123,  1, 1,    1,    2,        78,       1.4, 0, 0, 0, 0, 1, 1, 0
   124,  1, 1,    1,    2,     276.4,      59.3, 0, 0, 0, 0, 1, 1, 0
   125,  1, 1,    1,    2,     514.8,      82.7, 0, 0, 0, 0, 1, 1, 0
   126,  1, 1,    1,    2,      57.9,       5.1, 0, 0, 0, 0, 1, 1, 0
   127,  1, 1,    1,    2,     380.8,        37, 0, 0, 0, 0, 1, 1, 0
   135,  1, 1,    1,    2,     169.2,      41.6, 0, 0, 0, 0, 1, 1, 0
   136,  1, 1,    1,    2,      55.2,      18.2, 0, 0, 0, 0, 1, 1, 0
   137,  1, 1,    1,    2,     273.6,      99.8, 0, 0, 0, 0, 1, 1, 0
   138,  1, 1,    1,    2,    1019.2,     135.2, 0, 0, 0, 0, 1, 1, 0
   139,  1, 1,    1,    2,       595,      83.3, 0, 0, 0, 0, 1, 1, 0
   140,  1, 1,    1,    2,     387.7,     114.7, 0, 0, 0, 0, 1, 1, 0
   141,  1, 1,    1,    2,       145,        58, 0, 0, 0, 0, 1, 1, 0
   142,  1, 1,    1,    2,      56.5,      24.5, 0, 0, 0, 0, 1, 1, 0
   143,  1, 1,    1,    2,      89.5,      35.5, 0, 0, 0, 0, 1, 1, 0
   145,  1, 1,    1,    2,        24,        14, 0, 0, 0, 0, 1, 1, 0
   148,  1, 1,    1,    2,        63,        25, 0, 0, 0, 0, 1, 1, 0
   152,  1, 1,    1,    2,        17,         9, 0, 0, 0, 0, 1, 1, 0
   154,  1, 1,    1,    2,        70,         5, 0, 0, 0, 0, 1, 1, 0
   155,  1, 1,    1,    2,       200,        50, 0, 0, 0, 0, 1, 1, 0
   156,  1, 1,    1,    2,        75,        50, 0, 0, 0, 0, 1, 1, 0
   157,  1, 1,    1,    2,     123.5,     -24.3, 0, 0, 0, 0, 1, 1, 0
   159,  1, 1,    1,    2,        33,      16.5, 0, 0, 0, 0, 1, 1, 0
   161,  1, 1,    1,    2,        35,        15, 0, 0, 0, 0, 1, 1, 0
   162,  1, 1,    1,    2,        85,        24, 0, 0, 0, 0, 1, 1, 0
   167,  1, 1,    1,    2,     299.9,      95.7, 0, 0, 0, 0, 1, 1, 0
   170,  1, 1,    1,    2,     481.8,       205, 0, 0, 0, 0, 1, 1, 0
   171,  1, 1,    1,    2,     763.6,     291.1, 0, 0, 0, 0, 1, 1, 0
   172,  1, 1,    1,    2,      26.5,         0, 0, 0, 0, 0, 1, 1, 0
   173,  1, 1,    1,    2,     163.5,        43, 0, 0, 0, 0, 1, 1, 0
   175,  1, 1,    1,    2,       176,        83, 0, 0, 0, 0, 1, 1, 0
   176,  1, 1,    1,    2,         5,         4, 0, 0, 0, 0, 1, 1, 0
   177,  1, 1,    1,    2,        28,        12, 0, 0, 0, 0, 1, 1, 0
   178,  1, 1,    1,    2,     427.4,     173.6, 0, 0, 0, 0, 1, 1, 0
   179,  1, 1,    1,    2,        74,        29, 0, 0, 0, 0, 1, 1, 0
   180,  1, 1,    1,    2,      69.5,      49.3, 0, 0, 0, 0, 1, 1, 0
   181,  1, 1,    1,    2,      73.4,         0, 0, 0, 0, 0, 1, 1, 0
   182,  1, 1,    1,    2,     240.7,        89, 0, 0, 0, 0, 1, 1, 0
   183,  1, 1,    1,    2,        40,         4, 0, 0, 0, 0, 1, 1, 0
   184,  1, 1,    1,    2,     136.8,      16.6, 0, 0, 0, 0, 1, 1, 0
   186,  1, 1,    1,    2,      59.8,      24.3, 0, 0, 0, 0, 1, 1, 0
   187,  1, 1,    1,    2,      59.8,      24.3, 0, 0, 0, 0, 1, 1, 0
   188,  1, 1,    1,    2,     182.6,      43.6, 0, 0, 0, 0, 1, 1, 0
   189,  1, 1,    1,    3,         7,         2, 0, 0, 0, 0, 1, 1, 0
   191,  1, 1,    1,    3,       489,        53, 0, 0, 0, 0, 1, 1, 0
   192,  1, 1,    1,    3,       800,        72, 0, 0, 0, 0, 1, 1, 0
   196,  1, 1,    1,    3,        10,         3, 0, 0, 0, 0, 1, 1, 0
   197,  1, 1,    1,    3,        43,        14, 0, 0, 0, 0, 1, 1, 0
   198,  1, 1,    1,    3,        64,        21, 0, 0, 0, 0, 1, 1, 0
   199,  1, 1,    1,    3,        35,        12, 0, 0, 0, 0, 1, 1, 0
   200,  1, 1,    1,    3,        27,        12, 0, 0, 0, 0, 1, 1, 0
   201,  1, 1,    1,    1,        41,        14, 0, 0, 0, 0, 1, 1, 0
   202,  1, 1,    1,    3,        38,        13, 0, 0, 0, 0, 1, 1, 0
   203,  1, 1,    1,    3,        42,        14, 0, 0, 0, 0, 1, 1, 0
   204,  1, 1,    1,    3,        72,        24, 0, 0, 0, 0, 1, 1, 0
   206,  1, 1,    1,    3,        12,         2, 0, 0, 0, 0, 1, 1, 0
   207,  1, 1,    1,    1,       -21,     -14.2, 0, 0, 0, 0, 1, 1, 0
   208,  1, 1,    1,    3,         7,         2, 0, 0, 0, 0, 1, 1, 0
   209,  1, 1,    1,    3,        38,        13, 0, 0, 0, 0, 1, 1, 0
   211,  1, 1,    1,    3,        96,         7, 0, 0, 0, 0, 1, 1, 0
   214,  1, 1,    1,    3,        22,        16, 0, 0, 0, 0, 1, 1, 0
   215,  1, 1,    1,    3,        47,        26, 0, 0, 0, 0, 1, 1, 0
   216,  1, 1,    1,    3,       176,       105, 0, 0, 0, 0, 1, 1, 0
   217,  1, 1,    1,    3,       100,        75, 0, 0, 0, 0, 1, 1, 0
   218,  1, 1,    1,    3,       131,        96, 0, 0, 0, 0, 1, 1, 0
   220,  1, 1,    1,    3,       285,       100, 0, 0, 0, 0, 1, 1, 0
   221,  1, 1,    1,    3,       171,        70, 0, 0, 0, 0, 1, 1, 0
   222,  1, 1,    1,    3,       328,       188, 0, 0, 0, 0, 1, 1, 0
   223,  1, 1,    1,    3,       428,       232, 0, 0, 0, 0, 1, 1, 0
   224,  1, 1,    1,    3,       173,        99, 0, 0, 0, 0, 1, 1, 0
   225,  1, 1,    1,    3,       410,        40, 0, 0, 0, 0, 1, 1, 0
   227,  1, 1,    1,    3,       538,       369, 0, 0, 0, 0, 1, 1, 0
   228,  1, 1,    1,    3,       223,       148, 0, 0, 0, 0, 1, 1, 0
   229,  1, 1,    1,    3,        96,        46, 0, 0, 0, 0, 1, 1, 0
   231,  1, 1,    1,    3,       159,       107, 0, 0, 0, 0, 1, 1, 0
   232,  1, 1,    1,    3,       448,       143, 0, 0, 0, 0, 1, 1, 0
   233,  1, 1,    1,    3,       404,       212, 0, 0, 0, 0, 1, 1, 0
   234,  1, 1,    1,    3,       572,       244, 0, 0, 0, 0, 1, 1, 0
   235,  1, 1,    1,    3,       269,       157, 0, 0, 0, 0, 1, 1, 0
   238,  1, 1,    1,    3,       255,       149, 0, 0, 0, 0, 1, 1, 0
   243,  1, 1,    1,    3,         8,         3, 0, 0, 0, 0, 1, 1, 0
   245,  1, 1,    1,    3,        61,        30, 0, 0, 0, 0, 1, 1, 0
   246,  1, 1,    1,    3,        77,        33, 0, 0, 0, 0, 1, 1, 0
   247,  1, 1,    1,    3,        61,        30, 0, 0, 0, 0, 1, 1, 0
   248,  1, 1,    1,    3,        29,        14, 0, 0, 0, 0, 1, 1, 0
   249,  1, 1,    1,    3,        29,        14, 0, 0, 0, 0, 1, 1, 0
   250,  1, 1,    1,    3,       -23,       -17, 0, 0, 0, 0, 1, 1, 0
   281,  1, 1,    1,    3,     -33.1,     -29.4, 0, 0, 0, 0, 1, 1, 0
   319,  1, 1,    1,    1,     115.8,       -24, 0, 0, 0, 0, 1, 1, 0
   320,  1, 1,    1,    1,       2.4,     -12.6, 0, 0, 0, 0, 1, 1, 0
   322,  1, 1,    1,    1,       2.4,      -3.9, 0, 0, 0, 0, 1, 1, 0
   323,  1, 1,    1,    1,     -14.9,      26.5, 0, 0, 0, 0, 1, 1, 0
   324,  1, 1,    1,    1,      24.7,      -1.2, 0, 0, 0, 0, 1, 1, 0
   526,  1, 1,    1,    1,     145.3,     -34.9, 0, 0, 0, 0, 1, 1, 0
   528,  1, 1,    1,    1,      28.1,     -20.5, 0, 0, 0, 0, 1, 1, 0
   531,  1, 1,    1,    1,        14,       2.5, 0, 0, 0, 0, 1, 1, 0
   552,  1, 1,    1,    1,     -11.1,      -1.4, 0, 0, 0, 0, 1, 1, 0
   562,  1, 1,    1,    1,      50.5,      17.4, 0, 0, 0, 0, 1, 1, 0
   609,  1, 1,    1,    1,      29.6,       0.6, 0, 0, 0, 0, 1, 1, 0
   664,  1, 1,    1,    3,    -113.7,      76.7, 0, 0, 0, 0, 1, 1, 0
  1190,  1, 1,    1,    2,    100.31,     29.17, 0, 0, 0, 0, 1, 1, 0
  1200,  1, 1,    1,    2,      -100,     34.17, 0, 0, 0, 0, 1, 1, 0
  9002,  1, 1,    1,    9,       4.2,         0, 0, 0, 0, 0, 1, 1, 0
  9003,  1, 1,    1,    9,      2.71,      0.94, 0, 0, 0, 0, 1, 1, 0
  9004,  1, 1,    1,    9,      0.86,      0.28, 0, 0, 0, 0, 1, 1, 0
  9021,  1, 1,    1,    9,      4.75,      1.56, 0, 0, 0, 0, 1, 1, 0
  9022,  1, 1,    1,    9,      1.53,      0.53, 0, 0, 0, 0, 1, 1, 0
  9024,  1, 1,    1,    9,      1.35,      0.47, 0, 0, 0, 0, 1, 1, 0
  9025,  1, 1,    1,    9,      0.45,      0.16, 0, 0, 0, 0, 1, 1, 0
  9026,  1, 1,    1,    9,      0.45,      0.16, 0, 0, 0, 0, 1, 1, 0
  9031,  1, 1,    1,    9,      1.84,      0.64, 0, 0, 0, 0, 1, 1, 0
  9032,  1, 1,    1,    9,      1.39,      0.48, 0, 0, 0, 0, 1, 1, 0
  9033,  1, 1,    1,    9,      1.89,      0.65, 0, 0, 0, 0, 1, 1, 0
  9034,  1, 1,    1,    9,      1.55,      0.54, 0, 0, 0, 0, 1, 1, 0
  9035,  1, 1,    1,    9,      1.66,      0.58, 0, 0, 0, 0, 1, 1, 0
  9036,  1, 1,    1,    9,      3.03,         1, 0, 0, 0, 0, 1, 1, 0
  9037,  1, 1,    1,    9,      1.86,      0.64, 0, 0, 0, 0, 1, 1, 0
  9038,  1, 1,    1,    9,      2.58,      0.89, 0, 0, 0, 0, 1, 1, 0
  9041,  1, 1,    1,    9,      1.01,      0.35, 0, 0, 0, 0, 1, 1, 0
  9042,  1, 1,    1,    9,      0.81,      0.28, 0, 0, 0, 0, 1, 1, 0
  9043,  1, 1,    1,    9,       1.6,      0.52, 0, 0, 0, 0, 1, 1, 0
  9051,  1, 1,    1,    9,     35.81,         0, 0, 0, 0, 0, 1, 1, 0
  9052,  1, 1,    1,    9,        30,        23, 0, 0, 0, 0, 1, 1, 0
  9053,  1, 1,    1,    9,     26.48,         0, 0, 0, 0, 0, 1, 1, 0
  9071,  1, 1,    1,    9,      1.02,      0.35, 0, 0, 0, 0, 1, 1, 0
  9072,  1, 1,    1,    9,      1.02,      0.35, 0, 0, 0, 0, 1, 1, 0
  9121,  1, 1,    1,    9,       3.8,      1.25, 0, 0, 0, 0, 1, 1, 0
  9533,  1, 1,    1,    9,      1.19,      0.41, 0, 0, 0, 0, 1, 1, 0
0 / END OF LOAD DATA, BEGIN FIXED SHUNT DATA
   117, 1, 1,       0,     325
   120, 1, 1,       0,      55
   154, 1, 1,       0,    34.5
   164, 1, 1,       0,    -212
   166, 1, 1,       0,    -103
   173, 1, 1,       0,      53
   179, 1, 1,       0,      45
   190, 1, 1,       0,    -150
   231, 1, 1,       0,    -300
   238, 1, 1,       0,    -150
   240, 1, 1,       0,    -140
   248, 1, 1,       0,    45.6
  9003, 1, 1,    0.14,     2.4
  9022, 1, 1,    0.08,       0
  9024, 1, 1,    0.07,       0
  9025, 1, 1,    0.02,       0
  9026, 1, 1,    0.02,       0
  9031, 1, 1,     0.1,       0
  9032, 1, 1,    0.07,       0
  9033, 1, 1,     0.1,       0
  9034, 1, 1,    0.08,    1.72
  9035, 1, 1,    0.09,       0
  9037, 1, 1,     0.1,       0
  9038, 1, 1,    0.14,       0
  9041, 1, 1,    0.05,       0
  9042, 1, 1,    0.04,       0
  9071, 1, 1,    0.05,       0
  9072, 1, 1,    0.05,       0
  9533, 1, 1,     0.1,       0
0 / END OF FIXED SHUNT DATA, BEGIN GENERATOR DATA
     8,  1,         0,         0,        10,       -10,   1.0153, 0,     100, 0, 1, 0, 0, 1, 1, 100,       100,         0, 1, 1, 0, 1, 0, 1, 0, 1, 0, 1
    10,  1,         0,         0,        20,       -20,   1.0205, 0,     100, 0, 1, 0, 0, 1, 1, 100,       100,         0, 1, 1, 0, 1, 0, 1, 0, 1, 0, 1
    20,  1,         0,         0,        20,       -20,    1.001, 0,     100, 0, 1, 0, 0, 1, 1, 100,       100,         0, 1, 1, 0, 1, 0, 1, 0, 1, 0, 1
    63,  1,         0,         0,        25,       -25,   0.9583, 0,     100, 0, 1, 0, 0, 1, 1, 100,       100,         0, 1, 1, 0, 1, 0, 1, 0, 1, 0, 1
    76,  1,         0,         0,        35,        12,   0.9632, 0,     100, 0, 1, 0, 0, 1, 1, 100,       100,         0, 1, 1, 0, 1, 0, 1, 0, 1, 0, 1
    84,  1,       375,         0,       240,      -240,    1.025, 0,     100, 0, 1, 0, 0, 1, 1, 100,       475,         0, 1, 1, 0, 1, 0, 1, 0, 1, 0, 1
    91,  1,       155,         0,        96,       -11,    1.052, 0,     100, 0, 1, 0, 0, 1, 1, 100,       255,         0, 1, 1, 0, 1, 0, 1, 0, 1, 0, 1
    92,  1,       290,         0,       153,      -153,    1.052, 0,     100, 0, 1, 0, 0, 1, 1, 100,       390,         0, 1, 1, 0, 1, 0, 1, 0, 1, 0, 1
    98,  1,        68,         0,        56,       -30,        1, 0,     100, 0, 1, 0, 0, 1, 1, 100,       168,         0, 1, 1, 0, 1, 0, 1, 0, 1, 0, 1
   108,  1,       117,         0,        77,       -24,     0.99, 0,     100, 0, 1, 0, 0, 1, 1, 100,       217,         0, 1, 1, 0, 1, 0, 1, 0, 1, 0, 1
   119,  1,      1930,         0,      1500,      -500,   1.0435, 0,     100, 0, 1, 0, 0, 1, 1, 100,      2030,         0, 1, 1, 0, 1, 0, 1, 0, 1, 0, 1
   124,  1,       240,         0,       120,       -60,   1.0233, 0,     100, 0, 1, 0, 0, 1, 1, 100,       340,         0, 1, 1, 0, 1, 0, 1, 0, 1, 0, 1
   125,  1,         0,         0,       200,       -25,   1.0103, 0,     100, 0, 1, 0, 0, 1, 1, 100,       100,         0, 1, 1, 0, 1, 0, 1, 0, 1, 0, 1
   138,  1,         0,         0,       350,      -125,    1.055, 0,     100, 0, 1, 0, 0, 1, 1, 100,       100,         0, 1, 1, 0, 1, 0, 1, 0, 1, 0, 1
   141,  1,       281,         0,        75,       -50,    1.051, 0,     100, 0, 1, 0, 0, 1, 1, 100,       381,         0, 1, 1, 0, 1, 0, 1, 0, 1, 0, 1
   143,  1,       696,         0,       300,      -100,   1.0435, 0,     100, 0, 1, 0, 0, 1, 1, 100,       796,         0, 1, 1, 0, 1, 0, 1, 0, 1, 0, 1
   146,  1,        84,         0,        35,       -15,   1.0528, 0,     100, 0, 1, 0, 0, 1, 1, 100,       184,         0, 1, 1, 0, 1, 0, 1, 0, 1, 0, 1
   147,  1,       217,         0,       100,       -50,   1.0528, 0,     100, 0, 1, 0, 0, 1, 1, 100,       317,         0, 1, 1, 0, 1, 0, 1, 0, 1, 0, 1
   149,  1,       103,         0,        50,       -25,   1.0735, 0,     100, 0, 1, 0, 0, 1, 1, 100,       203,         0, 1, 1, 0, 1, 0, 1, 0, 1, 0, 1
   152,  1,       372,         0,       175,       -50,   1.0535, 0,     100, 0, 1, 0, 0, 1, 1, 100,       472,         0, 1, 1, 0, 1, 0, 1, 0, 1, 0, 1
   153,  1,       216,         0,        90,       -50,   1.0435, 0,     100, 0, 1, 0, 0, 1, 1, 100,       316,         0, 1, 1, 0, 1, 0, 1, 0, 1, 0, 1
   156,  1,         0,         0,        15,       -10,    0.963, 0,     100, 0, 1, 0, 0, 1, 1, 100,       100,         0, 1, 1, 0, 1, 0, 1, 0, 1, 0, 1
   170,  1,       205,         0,        90,       -40,    0.929, 0,     100, 0, 1, 0, 0, 1, 1, 100,       305,         0, 1, 1, 0, 1, 0, 1, 0, 1, 0, 1
   171,  1,         0,         0,       150,       -50,   0.9829, 0,     100, 0, 1, 0, 0, 1, 1, 100,       100,         0, 1, 1, 0, 1, 0, 1, 0, 1, 0, 1
   176,  1,       228,         0,        90,       -45,   1.0522, 0,     100, 0, 1, 0, 0, 1, 1, 100,       328,         0, 1, 1, 0, 1, 0, 1, 0, 1, 0, 1
   177,  1,        84,         0,        35,       -15,   1.0077, 0,     100, 0, 1, 0, 0, 1, 1, 100,       184,         0, 1, 1, 0, 1, 0, 1, 0, 1, 0, 1
   185,  1,       200,         0,        80,       -50,   1.0522, 0,     100, 0, 1, 0, 0, 1, 1, 100,       300,         0, 1, 1, 0, 1, 0, 1, 0, 1, 0, 1
   186,  1,      1200,         0,       400,      -100,    1.065, 0,     100, 0, 1, 0, 0, 1, 1, 100,      1300,         0, 1, 1, 0, 1, 0, 1, 0, 1, 0, 1
   187,  1,      1200,         0,       400,      -100,    1.065, 0,     100, 0, 1, 0, 0, 1, 1, 100,      1300,         0, 1, 1, 0, 1, 0, 1, 0, 1, 0, 1
   190,  1,       475,         0,       300,      -300,   1.0551, 0,     100, 0, 1, 0, 0, 1, 1, 100,       575,         0, 1, 1, 0, 1, 0, 1, 0, 1, 0, 1
   191,  1,      1973,         0,      1000,     -1000,   1.0435, 0,     100, 0, 1, 0, 0, 1, 1, 100,      2073,         0, 1, 1, 0, 1, 0, 1, 0, 1, 0, 1
   198,  1,       424,         0,       260,      -260,    1.015, 0,     100, 0, 1, 0, 0, 1, 1, 100,       524,         0, 1, 1, 0, 1, 0, 1, 0, 1, 0, 1
   213,  1,       272,         0,       150,      -150,     1.01, 0,     100, 0, 1, 0, 0, 1, 1, 100,       372,         0, 1, 1, 0, 1, 0, 1, 0, 1, 0, 1
   220,  1,       100,         0,        60,       -60,    1.008, 0,     100, 0, 1, 0, 0, 1, 1, 100,       200,         0, 1, 1, 0, 1, 0, 1, 0, 1, 0, 1
   221,  1,       450,         0,       320,      -320,        1, 0,     100, 0, 1, 0, 0, 1, 1, 100,       550,         0, 1, 1, 0, 1, 0, 1, 0, 1, 0, 1
   222,  1,       250,         0,       300,      -300,     1.05, 0,     100, 0, 1, 0, 0, 1, 1, 100,       350,         0, 1, 1, 0, 1, 0, 1, 0, 1, 0, 1
   227,  1,       303,         0,       300,      -300,        1, 0,     100, 0, 1, 0, 0, 1, 1, 100,       403,         0, 1, 1, 0, 1, 0, 1, 0, 1, 0, 1
   230,  1,       345,         0,       250,      -250,     1.04, 0,     100, 0, 1, 0, 0, 1, 1, 100,       445,         0, 1, 1, 0, 1, 0, 1, 0, 1, 0, 1
   233,  1,       300,         0,       500,      -500,        1, 0,     100, 0, 1, 0, 0, 1, 1, 100,       400,         0, 1, 1, 0, 1, 0, 1, 0, 1, 0, 1
   236,  1,       600,         0,       300,      -300,   1.0165, 0,     100, 0, 1, 0, 0, 1, 1, 100,       700,         0, 1, 1, 0, 1, 0, 1, 0, 1, 0, 1
   238,  1,       250,         0,       200,      -200,     1.01, 0,     100, 0, 1, 0, 0, 1, 1, 100,       350,         0, 1, 1, 0, 1, 0, 1, 0, 1, 0, 1
   239,  1,       550,         0,       400,      -400,        1, 0,     100, 0, 1, 0, 0, 1, 1, 100,       650,         0, 1, 1, 0, 1, 0, 1, 0, 1, 0, 1
   241,  1,    575.43,         0,       600,      -600,     1.05, 0,     100, 0, 1, 0, 0, 1, 1, 100,    675.43,         0, 1, 1, 0, 1, 0, 1, 0, 1, 0, 1
   242,  1,       170,         0,       100,        40,    0.993, 0,     100, 0, 1, 0, 0, 1, 1, 100,       270,         0, 1, 1, 0, 1, 0, 1, 0, 1, 0, 1
   243,  1,        84,         0,        80,        40,     1.01, 0,     100, 0, 1, 0, 0, 1, 1, 100,       184,         0, 1, 1, 0, 1, 0, 1, 0, 1, 0, 1
  7001,  1,       467,         0,       210,      -210,   1.0507, 0,     100, 0, 1, 0, 0, 1, 1, 100,       567,         0, 1, 1, 0, 1, 0, 1, 0, 1, 0, 1
  7002,  1,       623,         0,       280,      -280,   1.0507, 0,     100, 0, 1, 0, 0, 1, 1, 100,       723,         0, 1, 1, 0, 1, 0, 1, 0, 1, 0, 1
  7003,  1,      1210,         0,       420,      -420,   1.0323, 0,     100, 0, 1, 0, 0, 1, 1, 100,      1310,         0, 1, 1, 0, 1, 0, 1, 0, 1, 0, 1
  7011,  1,       234,         0,       100,      -100,   1.0145, 0,     100, 0, 1, 0, 0, 1, 1, 100,       334,         0, 1, 1, 0, 1, 0, 1, 0, 1, 0, 1
  7012,  1,       372,         0,       224,      -224,   1.0507, 0,     100, 0, 1, 0, 0, 1, 1, 100,       472,         0, 1, 1, 0, 1, 0, 1, 0, 1, 0, 1
  7017,  1,       330,         0,       350,         0,   1.0507, 0,     100, 0, 1, 0, 0, 1, 1, 100,       430,         0, 1, 1, 0, 1, 0, 1, 0, 1, 0, 1
  7023,  1,       185,         0,       120,         0,   1.0507, 0,     100, 0, 1, 0, 0, 1, 1, 100,       285,         0, 1, 1, 0, 1, 0, 1, 0, 1, 0, 1
  7024,  1,       410,         0,       224,      -224,    1.029, 0,     100, 0, 1, 0, 0, 1, 1, 100,       510,         0, 1, 1, 0, 1, 0, 1, 0, 1, 0, 1
  7039,  1,       500,         0,       200,      -200,     1.05, 0,     100, 0, 1, 0, 0, 1, 1, 100,       600,         0, 1, 1, 0, 1, 0, 1, 0, 1, 0, 1
  7044,  1,        37,         0,        42,         0,   1.0145, 0,     100, 0, 1, 0, 0, 1, 1, 100,       137,         0, 1, 1, 0, 1, 0, 1, 0, 1, 0, 1
  7049,  1,         0,         0,        10,         0,   1.0507, 0,     100, 0, 1, 0, 0, 1, 1, 100,  2399.005,         0, 1, 1, 0, 1, 0, 1, 0, 1, 0, 1
  7055,  1,        45,         0,        25,         0,   0.9967, 0,     100, 0, 1, 0, 0, 1, 1, 100,       145,         0, 1, 1, 0, 1, 0, 1, 0, 1, 0, 1
  7057,  1,       165,         0,        90,       -90,   1.0212, 0,     100, 0, 1, 0, 0, 1, 1, 100,       265,         0, 1, 1, 0, 1, 0, 1, 0, 1, 0, 1
  7061,  1,       400,         0,       150,      -150,   1.0145, 0,     100, 0, 1, 0, 0, 1, 1, 100,       500,         0, 1, 1, 0, 1, 0, 1, 0, 1, 0, 1
  7062,  1,       400,         0,       150,         0,   1.0017, 0,     100, 0, 1, 0, 0, 1, 1, 100,       500,         0, 1, 1, 0, 1, 0, 1, 0, 1, 0, 1
  7071,  1,       116,         0,        87,         0,   0.9893, 0,     100, 0, 1, 0, 0, 1, 1, 100,       216,         0, 1, 1, 0, 1, 0, 1, 0, 1, 0, 1
  7130,  1,      1292,         0,       600,      -100,   1.0507, 0,     100, 0, 1, 0, 0, 1, 1, 100,      1392,         0, 1, 1, 0, 1, 0, 1, 0, 1, 0, 1
  7139,  1,       700,         0,       325,      -125,   1.0507, 0,     100, 0, 1, 0, 0, 1, 1, 100,       800,         0, 1, 1, 0, 1, 0, 1, 0, 1, 0, 1
  7166,  1,       553,         0,       300,      -200,   1.0145, 0,     100, 0, 1, 0, 0, 1, 1, 100,       653,         0, 1, 1, 0, 1, 0, 1, 0, 1, 0, 1
  9002,  1,         0,         0,         2,        -2,   0.9945, 0,     100, 0, 1, 0, 0, 1, 1, 100,       100,         0, 1, 1, 0, 1, 0, 1, 0, 1, 0, 1
  9051,  1,         0,         0,     17.35,    -17.35,        1, 0,     100, 0, 1, 0, 0, 1, 1, 100,       100,         0, 1, 1, 0, 1, 0, 1, 0, 1, 0, 1
  9053,  1,         0,         0,     12.83,     -12.8,        1, 0,     100, 0, 1, 0, 0, 1, 1, 100,       100,         0, 1, 1, 0, 1, 0, 1, 0, 1, 0, 1
  9054,  1,        50,         0,        38,       -38,        1, 0,     100, 0, 1, 0, 0, 1, 1, 100,       150,         0, 1, 1, 0, 1, 0, 1, 0, 1, 0, 1
  9055,  1,         8,         0,         6,        -6,        1, 0,     100, 0, 1, 0, 0, 1, 1, 100,       108,         0, 1, 1, 0, 1, 0, 1, 0, 1, 0, 1
0 / END OF GENERATOR DATA, BEGIN BRANCH DATA
  9001,   9005, 1,   0.0008,  0.00348,        0,       0,       0,       0, 0, 0, 0, 0, 1, 1, 0, 1, 1, 0, 1, 0, 1, 0, 1
  9006,   9007, 1,  0.05558,  0.24666,        0,       0,       0,       0, 0, 0, 0, 0, 1, 1, 0, 1, 1, 0, 1, 0, 1, 0, 1
  9006,   9003, 1,  0.11118,  0.49332,        0,       0,       0,       0, 0, 0, 0, 0, 1, 1, 0, 1, 1, 0, 1, 0, 1, 0, 1
  9006,   9003, 2,  0.11118,  0.49332,        0,       0,       0,       0, 0, 0, 0, 0, 1, 1, 0, 1, 1, 0, 1, 0, 1, 0, 1
  9012,   9002, 1,  0.07622,  0.43286,        0,       0,       0,       0, 0, 0, 0, 0, 1, 1, 0, 1, 1, 0, 1, 0, 1, 0, 1
  9012,   9002, 2,  0.07622,  0.43286,        0,       0,       0,       0, 0, 0, 0, 0, 1, 1, 0, 1, 1, 0, 1, 0, 1, 0, 1
  9002,   9021, 1,   0.0537,  0.07026,        0,       0,       0,       0, 0, 0, 0, 0, 1, 1, 0, 1, 1, 0, 1, 0, 1, 0, 1
  9021,   9023, 1,   1.1068,  0.95278,        0,       0,       0,       0, 0, 0, 0, 0, 1, 1, 0, 1, 1, 0, 1, 0, 1, 0, 1
  9007,   9003, 1,   0.0558,  0.24666,        0,       0,       0,       0, 0, 0, 0, 0, 1, 1, 0, 1, 1, 0, 1, 0, 1, 0, 1
  9003,   9044, 1,  0.07378,  0.06352,        0,       0,       0,       0, 0, 0, 0, 0, 1, 1, 0, 1, 1, 0, 1, 0, 1, 0, 1
  9044,   9004, 1,  0.03832,  0.02894,        0,       0,       0,       0, 0, 0, 0, 0, 1, 1, 0, 1, 1, 0, 1, 0, 1, 0, 1
  9012,   9121, 1,  0.23552,  0.99036,        0,       0,       0,       0, 0, 0, 0, 0, 1, 1, 0, 1, 1, 0, 1, 0, 1, 0, 1
     1,      5, 1,    0.001,    0.006,        0,       0,       0,       0, 0, 0, 0, 0, 1, 1, 0, 1, 1, 0, 1, 0, 1, 0, 1
     2,      6, 1,    0.001,    0.009,        0,       0,       0,       0, 0, 0, 0, 0, 1, 1, 0, 1, 1, 0, 1, 0, 1, 0, 1
     2,      8, 1,    0.006,    0.027,    0.054,       0,       0,       0, 0, 0, 0, 0, 1, 1, 0, 1, 1, 0, 1, 0, 1, 0, 1
     3,      7, 1,        0,    0.003,        0,       0,       0,       0, 0, 0, 0, 0, 1, 1, 0, 1, 1, 0, 1, 0, 1, 0, 1
     3,     19, 1,    0.008,    0.069,    0.139,       0,       0,       0, 0, 0, 0, 0, 1, 1, 0, 1, 1, 0, 1, 0, 1, 0, 1
     3,    150, 1,    0.001,    0.007,        0,       0,       0,       0, 0, 0, 0, 0, 1, 1, 0, 1, 1, 0, 1, 0, 1, 0, 1
     4,     16, 1,    0.002,    0.019,    1.127,       0,       0,       0, 0, 0, 0, 0, 1, 1, 0, 1, 1, 0, 1, 0, 1, 0, 1
     5,      9, 1,    0.006,    0.029,    0.018,       0,       0,       0, 0, 0, 0, 0, 1, 1, 0, 1, 1, 0, 1, 0, 1, 0, 1
     7,     12, 1,    0.001,    0.009,     0.07,       0,       0,       0, 0, 0, 0, 0, 1, 1, 0, 1, 1, 0, 1, 0, 1, 0, 1
     7,    131, 1,    0.001,    0.007,    0.014,       0,       0,       0, 0, 0, 0, 0, 1, 1, 0, 1, 1, 0, 1, 0, 1, 0, 1
     8,     11, 1,    0.013,   0.0595,    0.033,       0,       0,       0, 0, 0, 0, 0, 1, 1, 0, 1, 1, 0, 1, 0, 1, 0, 1
     8,     14, 1,    0.013,    0.042,    0.081,       0,       0,       0, 0, 0, 0, 0, 1, 1, 0, 1, 1, 0, 1, 0, 1, 0, 1
     9,     11, 1,    0.006,    0.027,    0.013,       0,       0,       0, 0, 0, 0, 0, 1, 1, 0, 1, 1, 0, 1, 0, 1, 0, 1
    11,     13, 1,    0.008,    0.034,    0.018,       0,       0,       0, 0, 0, 0, 0, 1, 1, 0, 1, 1, 0, 1, 0, 1, 0, 1
    12,     21, 1,    0.002,    0.015,    0.118,       0,       0,       0, 0, 0, 0, 0, 1, 1, 0, 1, 1, 0, 1, 0, 1, 0, 1
    13,     20, 1,    0.006,    0.034,    0.016,       0,       0,       0, 0, 0, 0, 0, 1, 1, 0, 1, 1, 0, 1, 0, 1, 0, 1
    14,     15, 1,    0.014,    0.042,    0.097,       0,       0,       0, 0, 0, 0, 0, 1, 1, 0, 1, 1, 0, 1, 0, 1, 0, 1
    15,     37, 1,    0.065,    0.248,    0.121,       0,       0,       0, 0, 0, 0, 0, 1, 1, 0, 1, 1, 0, 1, 0, 1, 0, 1
    15,     89, 1,    0.099,    0.248,    0.035,       0,       0,       0, 0, 0, 0, 0, 1, 1, 0, 1, 1, 0, 1, 0, 1, 0, 1
    15,     90, 1,    0.096,    0.363,    0.048,       0,       0,       0, 0, 0, 0, 0, 1, 1, 0, 1, 1, 0, 1, 0, 1, 0, 1
    16,     42, 1,    0.002,    0.022,     1.28,       0,       0,       0, 0, 0, 0, 0, 1, 1, 0, 1, 1, 0, 1, 0, 1, 0, 1
    19,     21, 1,    0.002,    0.018,    0.036,       0,       0,       0, 0, 0, 0, 0, 1, 1, 0, 1, 1, 0, 1, 0, 1, 0, 1
    19,     87, 1,    0.013,     0.08,    0.151,       0,       0,       0, 0, 0, 0, 0, 1, 1, 0, 1, 1, 0, 1, 0, 1, 0, 1
    20,     22, 1,    0.016,    0.033,    0.015,       0,       0,       0, 0, 0, 0, 0, 1, 1, 0, 1, 1, 0, 1, 0, 1, 0, 1
    20,     27, 1,    0.069,    0.186,    0.098,       0,       0,       0, 0, 0, 0, 0, 1, 1, 0, 1, 1, 0, 1, 0, 1, 0, 1
    21,     24, 1,    0.004,    0.034,     0.28,       0,       0,       0, 0, 0, 0, 0, 1, 1, 0, 1, 1, 0, 1, 0, 1, 0, 1
    22,     23, 1,    0.052,    0.111,     0.05,       0,       0,       0, 0, 0, 0, 0, 1, 1, 0, 1, 1, 0, 1, 0, 1, 0, 1
    23,     25, 1,    0.019,    0.039,    0.018,       0,       0,       0, 0, 0, 0, 0, 1, 1, 0, 1, 1, 0, 1, 0, 1, 0, 1
    24,    319, 1,    0.007,    0.068,    0.134,       0,       0,       0, 0, 0, 0, 0, 1, 1, 0, 1, 1, 0, 1, 0, 1, 0, 1
    25,     26, 1,    0.036,    0.071,    0.034,       0,       0,       0, 0, 0, 0, 0, 1, 1, 0, 1, 1, 0, 1, 0, 1, 0, 1
    26,     27, 1,    0.045,     0.12,    0.065,       0,       0,       0, 0, 0, 0, 0, 1, 1, 0, 1, 1, 0, 1, 0, 1, 0, 1
    26,    320, 1,    0.043,     0.13,    0.014,       0,       0,       0, 0, 0, 0, 0, 1, 1, 0, 1, 1, 0, 1, 0, 1, 0, 1
    33,     38, 1,   0.0025,    0.012,    0.013,       0,       0,       0, 0, 0, 0, 0, 1, 1, 0, 1, 1, 0, 1, 0, 1, 0, 1
    33,     40, 1,    0.006,    0.029,     0.02,       0,       0,       0, 0, 0, 0, 0, 1, 1, 0, 1, 1, 0, 1, 0, 1, 0, 1
    33,     41, 1,    0.007,    0.043,    0.026,       0,       0,       0, 0, 0, 0, 0, 1, 1, 0, 1, 1, 0, 1, 0, 1, 0, 1
    34,     42, 1,    0.001,    0.008,    0.042,       0,       0,       0, 0, 0, 0, 0, 1, 1, 0, 1, 1, 0, 1, 0, 1, 0, 1
    35,     72, 1,    0.012,     0.06,    0.008,       0,       0,       0, 0, 0, 0, 0, 1, 1, 0, 1, 1, 0, 1, 0, 1, 0, 1
    35,     76, 1,    0.006,    0.014,    0.002,       0,       0,       0, 0, 0, 0, 0, 1, 1, 0, 1, 1, 0, 1, 0, 1, 0, 1
    35,     77, 1,     0.01,    0.029,    0.003,       0,       0,       0, 0, 0, 0, 0, 1, 1, 0, 1, 1, 0, 1, 0, 1, 0, 1
    36,     88, 1,    0.004,    0.027,    0.043,       0,       0,       0, 0, 0, 0, 0, 1, 1, 0, 1, 1, 0, 1, 0, 1, 0, 1
    37,     38, 1,    0.008,    0.047,    0.008,       0,       0,       0, 0, 0, 0, 0, 1, 1, 0, 1, 1, 0, 1, 0, 1, 0, 1
    37,     40, 1,    0.022,    0.064,    0.007,       0,       0,       0, 0, 0, 0, 0, 1, 1, 0, 1, 1, 0, 1, 0, 1, 0, 1
    37,     41, 1,     0.01,    0.036,     0.02,       0,       0,       0, 0, 0, 0, 0, 1, 1, 0, 1, 1, 0, 1, 0, 1, 0, 1
    37,     49, 1,    0.017,    0.081,    0.048,       0,       0,       0, 0, 0, 0, 0, 1, 1, 0, 1, 1, 0, 1, 0, 1, 0, 1
    37,     89, 1,    0.102,    0.254,    0.033,       0,       0,       0, 0, 0, 0, 0, 1, 1, 0, 1, 1, 0, 1, 0, 1, 0, 1
    37,     90, 1,    0.047,    0.127,    0.016,       0,       0,       0, 0, 0, 0, 0, 1, 1, 0, 1, 1, 0, 1, 0, 1, 0, 1
    38,     41, 1,    0.008,    0.037,     0.02,       0,       0,       0, 0, 0, 0, 0, 1, 1, 0, 1, 1, 0, 1, 0, 1, 0, 1
    38,     43, 1,    0.032,    0.087,     0.04,       0,       0,       0, 0, 0, 0, 0, 1, 1, 0, 1, 1, 0, 1, 0, 1, 0, 1
    39,     42, 1,   0.0006,   0.0064,    0.404,       0,       0,       0, 0, 0, 0, 0, 1, 1, 0, 1, 1, 0, 1, 0, 1, 0, 1
    40,     48, 1,    0.026,    0.154,    0.022,       0,       0,       0, 0, 0, 0, 0, 1, 1, 0, 1, 1, 0, 1, 0, 1, 0, 1
    41,     49, 1,    0.065,    0.191,     0.02,       0,       0,       0, 0, 0, 0, 0, 1, 1, 0, 1, 1, 0, 1, 0, 1, 0, 1
    41,     51, 1,    0.031,    0.089,    0.036,       0,       0,       0, 0, 0, 0, 0, 1, 1, 0, 1, 1, 0, 1, 0, 1, 0, 1
    42,     46, 1,    0.002,    0.014,    0.806,       0,       0,       0, 0, 0, 0, 0, 1, 1, 0, 1, 1, 0, 1, 0, 1, 0, 1
    43,     44, 1,    0.026,    0.072,    0.035,       0,       0,       0, 0, 0, 0, 0, 1, 1, 0, 1, 1, 0, 1, 0, 1, 0, 1
    43,     48, 1,    0.095,    0.262,    0.032,       0,       0,       0, 0, 0, 0, 0, 1, 1, 0, 1, 1, 0, 1, 0, 1, 0, 1
    43,     53, 1,    0.013,    0.039,    0.016,       0,       0,       0, 0, 0, 0, 0, 1, 1, 0, 1, 1, 0, 1, 0, 1, 0, 1
    44,     47, 1,    0.027,    0.084,    0.039,       0,       0,       0, 0, 0, 0, 0, 1, 1, 0, 1, 1, 0, 1, 0, 1, 0, 1
    44,     54, 1,    0.028,    0.084,    0.037,       0,       0,       0, 0, 0, 0, 0, 1, 1, 0, 1, 1, 0, 1, 0, 1, 0, 1
    45,     60, 1,    0.007,    0.041,    0.312,       0,       0,       0, 0, 0, 0, 0, 1, 1, 0, 1, 1, 0, 1, 0, 1, 0, 1
    45,     74, 1,    0.009,    0.054,    0.411,       0,       0,       0, 0, 0, 0, 0, 1, 1, 0, 1, 1, 0, 1, 0, 1, 0, 1
    46,     81, 1,    0.005,    0.042,     0.69,       0,       0,       0, 0, 0, 0, 0, 1, 1, 0, 1, 1, 0, 1, 0, 1, 0, 1
    47,     73, 1,    0.052,    0.145,    0.073,       0,       0,       0, 0, 0, 0, 0, 1, 1, 0, 1, 1, 0, 1, 0, 1, 0, 1
    47,    113, 1,    0.043,    0.118,    0.013,       0,       0,       0, 0, 0, 0, 0, 1, 1, 0, 1, 1, 0, 1, 0, 1, 0, 1
    48,    107, 1,    0.025,    0.062,    0.007,       0,       0,       0, 0, 0, 0, 0, 1, 1, 0, 1, 1, 0, 1, 0, 1, 0, 1
    49,     51, 1,    0.031,    0.094,    0.043,       0,       0,       0, 0, 0, 0, 0, 1, 1, 0, 1, 1, 0, 1, 0, 1, 0, 1
    51,     52, 1,    0.037,    0.109,    0.049,       0,       0,       0, 0, 0, 0, 0, 1, 1, 0, 1, 1, 0, 1, 0, 1, 0, 1
    52,     55, 1,    0.027,     0.08,    0.036,       0,       0,       0, 0, 0, 0, 0, 1, 1, 0, 1, 1, 0, 1, 0, 1, 0, 1
    53,     54, 1,    0.025,    0.073,    0.035,       0,       0,       0, 0, 0, 0, 0, 1, 1, 0, 1, 1, 0, 1, 0, 1, 0, 1
    54,     55, 1,    0.035,    0.103,    0.047,       0,       0,       0, 0, 0, 0, 0, 1, 1, 0, 1, 1, 0, 1, 0, 1, 0, 1
    55,     57, 1,    0.065,    0.169,    0.082,       0,       0,       0, 0, 0, 0, 0, 1, 1, 0, 1, 1, 0, 1, 0, 1, 0, 1
    57,     58, 1,    0.046,     0.08,    0.036,       0,       0,       0, 0, 0, 0, 0, 1, 1, 0, 1, 1, 0, 1, 0, 1, 0, 1
    57,     63, 1,    0.159,    0.537,    0.071,       0,       0,       0, 0, 0, 0, 0, 1, 1, 0, 1, 1, 0, 1, 0, 1, 0, 1
    58,     59, 1,    0.009,    0.026,    0.005,       0,       0,       0, 0, 0, 0, 0, 1, 1, 0, 1, 1, 0, 1, 0, 1, 0, 1
    59,     61, 1,    0.002,    0.013,    0.015,       0,       0,       0, 0, 0, 0, 0, 1, 1, 0, 1, 1, 0, 1, 0, 1, 0, 1
    60,     62, 1,    0.009,    0.065,    0.485,       0,       0,       0, 0, 0, 0, 0, 1, 1, 0, 1, 1, 0, 1, 0, 1, 0, 1
    62,     64, 1,    0.016,    0.105,    0.203,       0,       0,       0, 0, 0, 0, 0, 1, 1, 0, 1, 1, 0, 1, 0, 1, 0, 1
    62,    144, 1,    0.001,    0.007,    0.013,       0,       0,       0, 0, 0, 0, 0, 1, 1, 0, 1, 1, 0, 1, 0, 1, 0, 1
    63,    526, 1,   0.0265,    0.172,    0.026,       0,       0,       0, 0, 0, 0, 0, 1, 1, 0, 1, 1, 0, 1, 0, 1, 0, 1
    69,    211, 1,    0.051,    0.232,    0.028,       0,       0,       0, 0, 0, 0, 0, 1, 1, 0, 1, 1, 0, 1, 0, 1, 0, 1
    69,     79, 1,    0.051,    0.157,    0.023,       0,       0,       0, 0, 0, 0, 0, 1, 1, 0, 1, 1, 0, 1, 0, 1, 0, 1
    70,     71, 1,    0.032,      0.1,    0.062,       0,       0,       0, 0, 0, 0, 0, 1, 1, 0, 1, 1, 0, 1, 0, 1, 0, 1
    70,    528, 1,     0.02,   0.1234,    0.028,       0,       0,       0, 0, 0, 0, 0, 1, 1, 0, 1, 1, 0, 1, 0, 1, 0, 1
    71,     72, 1,    0.036,    0.131,    0.068,       0,       0,       0, 0, 0, 0, 0, 1, 1, 0, 1, 1, 0, 1, 0, 1, 0, 1
    71,     73, 1,    0.034,    0.099,    0.047,       0,       0,       0, 0, 0, 0, 0, 1, 1, 0, 1, 1, 0, 1, 0, 1, 0, 1
    72,     77, 1,    0.018,    0.087,    0.011,       0,       0,       0, 0, 0, 0, 0, 1, 1, 0, 1, 1, 0, 1, 0, 1, 0, 1
    72,    531, 1,   0.0256,    0.193,        0,       0,       0,       0, 0, 0, 0, 0, 1, 1, 0, 1, 1, 0, 1, 0, 1, 0, 1
    73,     76, 1,    0.021,    0.057,     0.03,       0,       0,       0, 0, 0, 0, 0, 1, 1, 0, 1, 1, 0, 1, 0, 1, 0, 1
    73,     79, 1,    0.018,    0.052,    0.018,       0,       0,       0, 0, 0, 0, 0, 1, 1, 0, 1, 1, 0, 1, 0, 1, 0, 1
    74,     88, 1,    0.004,    0.027,     0.05,       0,       0,       0, 0, 0, 0, 0, 1, 1, 0, 1, 1, 0, 1, 0, 1, 0, 1
    74,    562, 1,   0.0286,   0.2013,    0.379,       0,       0,       0, 0, 0, 0, 0, 1, 1, 0, 1, 1, 0, 1, 0, 1, 0, 1
    76,     77, 1,    0.016,    0.043,    0.004,       0,       0,       0, 0, 0, 0, 0, 1, 1, 0, 1, 1, 0, 1, 0, 1, 0, 1
    77,     78, 1,    0.001,    0.006,    0.007,       0,       0,       0, 0, 0, 0, 0, 1, 1, 0, 1, 1, 0, 1, 0, 1, 0, 1
    77,     80, 1,    0.014,     0.07,    0.038,       0,       0,       0, 0, 0, 0, 0, 1, 1, 0, 1, 1, 0, 1, 0, 1, 0, 1
    77,    552, 1,   0.0891,   0.2676,    0.029,       0,       0,       0, 0, 0, 0, 0, 1, 1, 0, 1, 1, 0, 1, 0, 1, 0, 1
    77,    609, 1,   0.0782,   0.2127,    0.022,       0,       0,       0, 0, 0, 0, 0, 1, 1, 0, 1, 1, 0, 1, 0, 1, 0, 1
    78,     79, 1,    0.006,    0.022,    0.011,       0,       0,       0, 0, 0, 0, 0, 1, 1, 0, 1, 1, 0, 1, 0, 1, 0, 1
    78,     84, 1,        0,    0.036,        0,       0,       0,       0, 0, 0, 0, 0, 1, 1, 0, 1, 1, 0, 1, 0, 1, 0, 1
    79,    211, 1,    0.099,    0.375,    0.051,       0,       0,       0, 0, 0, 0, 0, 1, 1, 0, 1, 1, 0, 1, 0, 1, 0, 1
    80,    211, 1,    0.022,    0.107,    0.058,       0,       0,       0, 0, 0, 0, 0, 1, 1, 0, 1, 1, 0, 1, 0, 1, 0, 1
    81,    194, 1,   0.0035,    0.033,     0.53,       0,       0,       0, 0, 0, 0, 0, 1, 1, 0, 1, 1, 0, 1, 0, 1, 0, 1
    81,    195, 1,   0.0035,    0.033,     0.53,       0,       0,       0, 0, 0, 0, 0, 1, 1, 0, 1, 1, 0, 1, 0, 1, 0, 1
    85,     86, 1,    0.008,    0.064,    0.128,       0,       0,       0, 0, 0, 0, 0, 1, 1, 0, 1, 1, 0, 1, 0, 1, 0, 1
    86,     87, 1,    0.012,    0.093,    0.183,       0,       0,       0, 0, 0, 0, 0, 1, 1, 0, 1, 1, 0, 1, 0, 1, 0, 1
    86,    323, 1,    0.006,    0.048,    0.092,       0,       0,       0, 0, 0, 0, 0, 1, 1, 0, 1, 1, 0, 1, 0, 1, 0, 1
    89,     91, 1,    0.047,    0.119,    0.014,       0,       0,       0, 0, 0, 0, 0, 1, 1, 0, 1, 1, 0, 1, 0, 1, 0, 1
    90,     92, 1,    0.032,    0.174,    0.024,       0,       0,       0, 0, 0, 0, 0, 1, 1, 0, 1, 1, 0, 1, 0, 1, 0, 1
...